*line regulation
.inc ../AE01.07.17.002.cir
.step param VSOURCE 15 25 5
.param ILOAD=0.5
.param x_base=6m
.tran 0 {x_base} 0 uic startup
