*transient response
.inc ../AE01.07.17.002.cir
.param VSOURCE=25
.param ILOAD=0.5
.param x_base=5m
.tran 0 {x_base} 0 uic startup
